contingency/peak_load/80pc/TNB_DUMA_VLN.Txt

SYMMETRICAL COMPONENT VOLTAGES BY BUS (for 3-phase buses)

Bus               Mag:   V1 (kV)    p.u.     V2 (kV)   %V2/V1    V0 (kV)    %V0/V1

ppu_duma_33kv        18.54     0.9729  6.015E-009  3.245E-008 1.239E-009 6.686E-009
ppu_duma_11kv        5.198     0.8185  1.214E-008  2.336E-007 1.005E-007 1.933E-006
rpplngi2             5.303      0.835  1.232E-008  2.323E-007 1.024E-007 1.932E-006
pdtjlnmasjid         5.383     0.8476  1.245E-008  2.313E-007 1.039E-007 1.931E-006
bella                5.438     0.8562  1.254E-008  2.307E-007 1.049E-007 1.93E-006
pstpdgn              5.465     0.8605  1.259E-008  2.303E-007 1.054E-007 1.929E-006
pamdra                5.21     0.8204  1.217E-008  2.335E-007 1.007E-007 1.933E-006
duma4                5.252     0.8269  1.224E-008  2.33E-007 1.128E-007 2.148E-006
plsdra               5.343     0.8413  1.24E-008  2.321E-007 1.351E-007 2.529E-006
ssu_uptwres_ir1      5.356     0.8433  1.242E-008  2.319E-007 1.354E-007 2.528E-006
atria_1              5.357     0.8435  1.242E-008  2.318E-007 1.034E-007 1.929E-006
hawker               5.383     0.8476  1.246E-008  2.314E-007 1.039E-007 1.931E-006
prmte                5.274     0.8304  1.226E-008  2.324E-007 1.223E-007 2.319E-006
prmta                5.288     0.8326  1.228E-008  2.322E-007 1.226E-007 2.319E-006
pmontb               5.301     0.8347  1.23E-008  2.321E-007 1.257E-007 2.372E-006
duma7                5.241     0.8253  1.28E-008  2.442E-007 9.872E-008 1.884E-006
haus                 5.338     0.8405  1.35E-008  2.529E-007 3.866E-007 7.243E-006
duma6                5.609     0.8832  2.261E-008  4.03E-007 1.763E-006 3.144E-005
duma13                5.86     0.9227  4.007E-008  6.838E-007 3.287E-006 5.609E-005
ssu_duma5_im2        5.891     0.9275  4.337E-008  7.362E-007 3.305E-006 5.611E-005
plngi_b              5.262     0.8285  1.226E-008  2.329E-007 1.016E-007 1.931E-006
plngi_d              5.296     0.8339  1.232E-008  2.326E-007 1.022E-007 1.93E-006
pdtlitrak            5.499     0.8658  1.164E-008  2.117E-007 1.083E-007 1.97E-006
duma12               5.624     0.8856  1.136E-008  2.02E-007 1.116E-007 1.985E-006
tmngh4               5.748     0.9051  1.118E-008  1.945E-007 1.478E-007 2.572E-006
ssu_tmegah3_ir1      5.797     0.9128  1.11E-008  1.915E-007 1.628E-007 2.808E-006
tmngh2               5.817      0.916  1.107E-008  1.903E-007 1.692E-007 2.908E-006
sprk9                5.426     0.8545  1.252E-008  2.307E-007 1.05E-007 1.934E-006
bomba                5.441     0.8567  1.254E-008  2.305E-007 1.077E-007 1.98E-006
sprk8                5.476     0.8622  1.26E-008  2.301E-007 1.149E-007 2.099E-006
ssu_uptwres_im2      5.238     0.8247  1.221E-008  2.331E-007 1.101E-007 2.101E-006
maybank                5.3     0.8346  1.232E-008  2.324E-007 1.113E-007  2.1E-006
duma8                5.312     0.8365  1.234E-008  2.323E-007 1.138E-007 2.142E-006
ssu_dsarcntr_ir1     5.231     0.8237  1.22E-008  2.333E-007 1.01E-007 1.932E-006
duma9                5.393     0.8491  1.247E-008  2.313E-007 1.041E-007 1.93E-006
duma1                5.474     0.8619  1.261E-008  2.304E-007 1.056E-007 1.929E-006
elite                5.503     0.8666  1.266E-008  2.301E-007 1.061E-007 1.928E-006
duma10               5.346     0.8417  1.24E-008  2.32E-007 1.031E-007 1.929E-006
balaipolis           5.347      0.842  1.24E-008  2.32E-007 1.031E-007 1.929E-006
ppu_duma_vcb1            0          0          0          0         0         0
